Version 4
SHEET 1 3092 680
WIRE 1104 -160 -64 -160
WIRE 1280 -160 1200 -160
WIRE 1360 -160 1280 -160
WIRE 2768 -160 1600 -160
WIRE 2944 -160 2864 -160
WIRE 3024 -160 2944 -160
WIRE -64 -64 -64 -160
WIRE 416 -64 -64 -64
WIRE 496 -64 416 -64
WIRE 544 -64 496 -64
WIRE 880 -64 800 -64
WIRE 928 -64 880 -64
WIRE 1184 -64 1184 -112
WIRE 1184 -64 928 -64
WIRE 1600 -64 1600 -160
WIRE 2080 -64 1600 -64
WIRE 2208 -64 2080 -64
WIRE 2544 -64 2464 -64
WIRE 2592 -64 2544 -64
WIRE 2848 -64 2848 -112
WIRE 2848 -64 2592 -64
WIRE 416 -16 416 -64
WIRE 2080 -16 2080 -64
WIRE 496 0 496 -64
WIRE 1360 48 1360 -160
WIRE 3024 48 3024 -160
WIRE 928 64 928 -64
WIRE 2592 64 2592 -64
WIRE -64 80 -64 -64
WIRE 1600 80 1600 -64
WIRE 496 96 496 80
WIRE 592 96 496 96
WIRE 672 96 672 48
WIRE 672 96 592 96
WIRE 672 128 672 96
WIRE 2336 144 2336 48
WIRE 592 208 592 96
WIRE 624 208 592 208
WIRE -64 288 -64 160
WIRE 416 288 416 48
WIRE 416 288 -64 288
WIRE 672 288 672 224
WIRE 672 288 416 288
WIRE 752 288 672 288
WIRE 928 288 928 128
WIRE 928 288 752 288
WIRE 1360 288 1360 128
WIRE 1360 288 928 288
WIRE 1600 288 1600 160
WIRE 1904 288 1600 288
WIRE 2080 288 2080 48
WIRE 2080 288 1904 288
WIRE 2336 288 2336 224
WIRE 2336 288 2080 288
WIRE 2592 288 2592 128
WIRE 2592 288 2336 288
WIRE 3024 288 3024 128
WIRE 3024 288 2592 288
WIRE 752 336 752 288
WIRE 1904 336 1904 288
FLAG 752 336 0
FLAG 880 -64 Vout
FLAG 1280 -160 Vfpga
FLAG 1904 336 0
FLAG 2544 -64 Vout2
FLAG 2944 -160 Vfpga2
SYMBOL nmos 624 128 R0
SYMATTR InstName M1
SYMATTR Value 2N7002
SYMBOL voltage -64 64 R0
WINDOW 123 0 0 Left 0
WINDOW 39 0 0 Left 0
SYMATTR InstName V1
SYMATTR Value 5
SYMBOL PowerProducts\\LT1790-3.3 672 -64 R0
SYMATTR InstName U1
SYMBOL cap 400 -16 R0
SYMATTR InstName C1
SYMATTR Value 2.2µ
SYMBOL cap 912 64 R0
SYMATTR InstName C2
SYMATTR Value 2.2µ
SYMBOL nmos 1104 -112 R270
SYMATTR InstName M2
SYMATTR Value 2N7002
SYMBOL res 1344 32 R0
SYMATTR InstName R2
SYMATTR Value 1000k
SYMBOL voltage 1600 64 R0
WINDOW 123 0 0 Left 0
WINDOW 39 0 0 Left 0
SYMATTR InstName V3
SYMATTR Value 5
SYMBOL PowerProducts\\LT1790-3.3 2336 -64 R0
SYMATTR InstName U2
SYMBOL cap 2064 -16 R0
SYMATTR InstName C3
SYMATTR Value 2.2µ
SYMBOL cap 2576 64 R0
SYMATTR InstName C4
SYMATTR Value 2.2µ
SYMBOL nmos 2768 -112 R270
SYMATTR InstName M4
SYMATTR Value 2N7002
SYMBOL res 3008 32 R0
SYMATTR InstName R1
SYMATTR Value 10k
SYMBOL voltage 2336 128 R0
WINDOW 123 0 0 Left 0
WINDOW 39 0 0 Left 0
SYMATTR InstName V2
SYMATTR Value 1.435
SYMBOL res 480 -16 R0
SYMATTR InstName R3
SYMATTR Value 1000k
TEXT -96 360 Left 2 !.dc V1 0 12 0.1
TEXT 152 -208 Left 2 !.temp -40 25 85
